LAMMPS (31 Mar 2017)
variable        NSTEPS          equal 3000
variable        THERMO_FREQ     equal 10
variable        DUMP_FREQ       equal 10
variable        TEMP            equal 50.000000
variable        PRES            equal 1.000000
variable        TAU_T           equal 0.100000
variable        TAU_P           equal 0.500000

units           metal
boundary        p p p
atom_style      atomic

neighbor        1.0 bin

box          tilt large
read_data       conf.lmp
  triclinic box = (0 0 0) to (5.58926 4.8232 8.8531) with tilt (2.91792 0.172416 0.0382415)
  reading atoms ...
  16 atoms
change_box   all triclinic
  triclinic box = (0 0 0) to (5.58926 4.8232 8.8531) with tilt (2.91792 0.172416 0.0382415)
mass            1 64.000000
mass            2 65.000000
pair_style      deepmd ../graph.002.pb ../graph.003.pb ../graph.000.pb ../graph.001.pb  10 model_devi.out
pair_coeff

thermo_style    custom step temp pe ke etotal press vol lx ly lz xy xz yz
thermo          10
dump            1 all custom 10 traj/*.lammpstrj id type x y z

velocity        all create 50 466317
fix             1 all npt temp 50 50 0.1 iso 1 1 0.5

timestep        0.002000
run             3000
  update every 1 steps, delay 10 steps, check yes
Step Temp PotEng KinEng TotEng Press Volume Lx Ly Lz Xy Xz Yz
0           50    -27.59769  0.096945109   -27.500745   -36269.866    238.66302    5.5892554    4.8232045    8.8531028    2.9179166    0.1724156    0.0382415
Averages over the last 151 of 301 rows, steps 1500 to 3000:
Temp PotEng KinEng TotEng Press Volume Lx Ly Lz Xy Xz Yz
46.236 -27.7201 0.0896471 -27.6305 18.5817 228.498 5.50873 4.75372 8.72555 2.87588 0.169932 0.0376905
Loop time of 111.529 on 1 procs for 3000 steps with 16 atoms
